/*---------------------------------------------------------------------------*\
  =========                 |
  \\      /  F ield         | OpenFOAM: The Open Source CFD Toolbox
   \\    /   O peration     | Website:  https://openfoam.org
    \\  /    A nd           | Version:  7
     \\/     M anipulation  |
\*---------------------------------------------------------------------------*/
Build  : 7-ca808c8420bf
Exec   : interFoam
Date   : Apr 08 2020
Time   : 18:41:39
Host   : "master"
PID    : 15126
I/O    : uncollated
Case   : /home/master/Desktop/Simone/testCases/may04TestCase
nProcs : 1
sigFpe : Enabling floating point exception trapping (FOAM_SIGFPE).
fileModificationChecking : Monitoring run-time modified files using timeStampMaster (fileModificationSkew 10)
allowSystemOperations : Allowing user-supplied system call operations

// * * * * * * * * * * * * * * * * * * * * * * * * * * * * * * * * * * * * * //
Create time

Create mesh for time = 0


PIMPLE: No convergence criteria found


PIMPLE: Operating solver in transient mode with 1 outer corrector
PIMPLE: Operating solver in PISO mode


Using LTS
Reading field p_rgh

Reading field U

Reading/calculating face flux field phi

Reading transportProperties

Selecting incompressible transport model Newtonian
Selecting incompressible transport model Newtonian
Selecting turbulence model type RAS
Selecting RAS turbulence model kOmegaSST
Selecting patchDistMethod meshWave
RAS
{
    RASModel        kOmegaSST;
    turbulence      on;
    printCoeffs     on;
    alphaK1         0.85;
    alphaK2         1;
    alphaOmega1     0.5;
    alphaOmega2     0.856;
    gamma1          0.555556;
    gamma2          0.44;
    beta1           0.075;
    beta2           0.0828;
    betaStar        0.09;
    a1              0.31;
    b1              1;
    c1              10;
    F3              false;
}


Reading g

Reading hRef
Calculating field g.h

No MRF models present

No finite volume options present
GAMGPCG:  Solving for pcorr, Initial residual = 1, Final residual = 1.19574e-06, No Iterations 7
time step continuity errors : sum local = 3.90681e-10, global = -4.15285e-11, cumulative = -4.15285e-11

Starting time loop

--> FOAM Warning : 
    From function virtual void Foam::probes::findElements(const Foam::fvMesh&)
    in file probes/probes.C at line 119
    Did not find location (149.245 2533.87 11.5) in any cell. Skipping location.
--> FOAM Warning : 
    From function virtual void Foam::probes::findElements(const Foam::fvMesh&)
    in file probes/probes.C at line 119
    Did not find location (152.339 2533.87 11.5) in any cell. Skipping location.
--> FOAM Warning : 
    From function virtual void Foam::probes::findElements(const Foam::fvMesh&)
    in file probes/probes.C at line 119
    Did not find location (155.434 2533.87 11.5) in any cell. Skipping location.
--> FOAM Warning : 
    From function virtual void Foam::probes::findElements(const Foam::fvMesh&)
    in file probes/probes.C at line 119
    Did not find location (158.528 2533.87 11.5) in any cell. Skipping location.
--> FOAM Warning : 
    From function virtual void Foam::probes::findElements(const Foam::fvMesh&)
    in file probes/probes.C at line 119
    Did not find location (161.622 2533.87 11.5) in any cell. Skipping location.
--> FOAM Warning : 
    From function virtual void Foam::probes::findElements(const Foam::fvMesh&)
    in file probes/probes.C at line 119
    Did not find location (164.717 2533.87 11.5) in any cell. Skipping location.
--> FOAM Warning : 
    From function virtual void Foam::probes::findElements(const Foam::fvMesh&)
    in file probes/probes.C at line 119
    Did not find location (167.811 2533.87 11.5) in any cell. Skipping location.
--> FOAM Warning : 
    From function virtual void Foam::probes::findElements(const Foam::fvMesh&)
    in file probes/probes.C at line 119
    Did not find location (170.905 2533.87 11.5) in any cell. Skipping location.
--> FOAM Warning : 
    From function virtual void Foam::probes::findElements(const Foam::fvMesh&)
    in file probes/probes.C at line 119
    Did not find location (174 2533.87 11.5) in any cell. Skipping location.
--> FOAM Warning : 
    From function virtual void Foam::probes::findElements(const Foam::fvMesh&)
    in file probes/probes.C at line 119
    Did not find location (177.094 2533.87 11.5) in any cell. Skipping location.
--> FOAM Warning : 
    From function virtual void Foam::probes::findElements(const Foam::fvMesh&)
    in file probes/probes.C at line 119
    Did not find location (180.188 2533.87 11.5) in any cell. Skipping location.
--> FOAM Warning : 
    From function virtual void Foam::probes::findElements(const Foam::fvMesh&)
    in file probes/probes.C at line 119
    Did not find location (183.283 2533.87 11.5) in any cell. Skipping location.
--> FOAM Warning : 
    From function virtual void Foam::probes::findElements(const Foam::fvMesh&)
    in file probes/probes.C at line 119
    Did not find location (186.377 2533.87 11.5) in any cell. Skipping location.
--> FOAM Warning : 
    From function virtual void Foam::probes::findElements(const Foam::fvMesh&)
    in file probes/probes.C at line 119
    Did not find location (189.471 2533.87 11.5) in any cell. Skipping location.
--> FOAM Warning : 
    From function virtual void Foam::probes::findElements(const Foam::fvMesh&)
    in file probes/probes.C at line 119
    Did not find location (192.566 2533.87 11.5) in any cell. Skipping location.
--> FOAM Warning : 
    From function virtual void Foam::probes::findElements(const Foam::fvMesh&)
    in file probes/probes.C at line 119
    Did not find location (195.66 2533.87 11.5) in any cell. Skipping location.
--> FOAM Warning : 
    From function virtual void Foam::probes::findElements(const Foam::fvMesh&)
    in file probes/probes.C at line 119
    Did not find location (198.754 2533.87 11.5) in any cell. Skipping location.
--> FOAM Warning : 
    From function virtual void Foam::probes::findElements(const Foam::fvMesh&)
    in file probes/probes.C at line 119
    Did not find location (201.849 2533.87 11.5) in any cell. Skipping location.
--> FOAM Warning : 
    From function virtual void Foam::probes::findElements(const Foam::fvMesh&)
    in file probes/probes.C at line 119
    Did not find location (204.943 2533.87 11.5) in any cell. Skipping location.
--> FOAM Warning : 
    From function virtual void Foam::probes::findElements(const Foam::fvMesh&)
    in file probes/probes.C at line 119
    Did not find location (208.037 2533.87 11.5) in any cell. Skipping location.
--> FOAM Warning : 
    From function virtual void Foam::probes::findElements(const Foam::fvMesh&)
    in file probes/probes.C at line 119
    Did not find location (211.132 2533.87 11.5) in any cell. Skipping location.
--> FOAM Warning : 
    From function virtual void Foam::probes::findElements(const Foam::fvMesh&)
    in file probes/probes.C at line 119
    Did not find location (214.226 2533.87 11.5) in any cell. Skipping location.
--> FOAM Warning : 
    From function virtual void Foam::probes::findElements(const Foam::fvMesh&)
    in file probes/probes.C at line 119
    Did not find location (217.32 2533.87 11.5) in any cell. Skipping location.
--> FOAM Warning : 
    From function virtual void Foam::probes::findElements(const Foam::fvMesh&)
    in file probes/probes.C at line 119
    Did not find location (220.415 2533.87 11.5) in any cell. Skipping location.
--> FOAM Warning : 
    From function virtual void Foam::probes::findElements(const Foam::fvMesh&)
    in file probes/probes.C at line 119
    Did not find location (223.509 2533.87 11.5) in any cell. Skipping location.
--> FOAM Warning : 
    From function virtual void Foam::probes::findElements(const Foam::fvMesh&)
    in file probes/probes.C at line 119
    Did not find location (226.603 2533.87 11.5) in any cell. Skipping location.
--> FOAM Warning : 
    From function virtual void Foam::probes::findElements(const Foam::fvMesh&)
    in file probes/probes.C at line 119
    Did not find location (229.698 2533.87 11.5) in any cell. Skipping location.
--> FOAM Warning : 
    From function virtual void Foam::probes::findElements(const Foam::fvMesh&)
    in file probes/probes.C at line 119
    Did not find location (232.792 2533.87 11.5) in any cell. Skipping location.
--> FOAM Warning : 
    From function virtual void Foam::probes::findElements(const Foam::fvMesh&)
    in file probes/probes.C at line 119
    Did not find location (235.887 2533.87 11.5) in any cell. Skipping location.
--> FOAM Warning : 
    From function virtual void Foam::probes::findElements(const Foam::fvMesh&)
    in file probes/probes.C at line 119
    Did not find location (238.981 2533.87 11.5) in any cell. Skipping location.
--> FOAM Warning : 
    From function virtual void Foam::probes::findElements(const Foam::fvMesh&)
    in file probes/probes.C at line 119
    Did not find location (242.075 2533.87 11.5) in any cell. Skipping location.
--> FOAM Warning : 
    From function virtual void Foam::probes::findElements(const Foam::fvMesh&)
    in file probes/probes.C at line 119
    Did not find location (245.17 2533.87 11.5) in any cell. Skipping location.
--> FOAM Warning : 
    From function virtual void Foam::probes::findElements(const Foam::fvMesh&)
    in file probes/probes.C at line 119
    Did not find location (248.264 2533.87 11.5) in any cell. Skipping location.
--> FOAM Warning : 
    From function virtual void Foam::probes::findElements(const Foam::fvMesh&)
    in file probes/probes.C at line 119
    Did not find location (251.358 2533.87 11.5) in any cell. Skipping location.
--> FOAM Warning : 
    From function virtual void Foam::probes::findElements(const Foam::fvMesh&)
    in file probes/probes.C at line 119
    Did not find location (254.453 2533.87 11.5) in any cell. Skipping location.
--> FOAM Warning : 
    From function virtual void Foam::probes::findElements(const Foam::fvMesh&)
    in file probes/probes.C at line 119
    Did not find location (257.547 2533.87 11.5) in any cell. Skipping location.
--> FOAM Warning : 
    From function virtual void Foam::probes::findElements(const Foam::fvMesh&)
    in file probes/probes.C at line 119
    Did not find location (260.641 2533.87 11.5) in any cell. Skipping location.
--> FOAM Warning : 
    From function virtual void Foam::probes::findElements(const Foam::fvMesh&)
    in file probes/probes.C at line 119
    Did not find location (263.736 2533.87 11.5) in any cell. Skipping location.
--> FOAM Warning : 
    From function virtual void Foam::probes::findElements(const Foam::fvMesh&)
    in file probes/probes.C at line 119
    Did not find location (266.83 2533.87 11.5) in any cell. Skipping location.
--> FOAM Warning : 
    From function virtual void Foam::probes::findElements(const Foam::fvMesh&)
    in file probes/probes.C at line 119
    Did not find location (269.924 2533.87 11.5) in any cell. Skipping location.
--> FOAM Warning : 
    From function virtual void Foam::probes::findElements(const Foam::fvMesh&)
    in file probes/probes.C at line 119
    Did not find location (273.019 2533.87 11.5) in any cell. Skipping location.
--> FOAM Warning : 
    From function virtual void Foam::probes::findElements(const Foam::fvMesh&)
    in file probes/probes.C at line 119
    Did not find location (276.113 2533.87 11.5) in any cell. Skipping location.
--> FOAM Warning : 
    From function virtual void Foam::probes::findElements(const Foam::fvMesh&)
    in file probes/probes.C at line 119
    Did not find location (279.207 2533.87 11.5) in any cell. Skipping location.
--> FOAM Warning : 
    From function virtual void Foam::probes::findElements(const Foam::fvMesh&)
    in file probes/probes.C at line 119
    Did not find location (282.302 2533.87 11.5) in any cell. Skipping location.
--> FOAM Warning : 
    From function virtual void Foam::probes::findElements(const Foam::fvMesh&)
    in file probes/probes.C at line 119
    Did not find location (285.396 2533.87 11.5) in any cell. Skipping location.
--> FOAM Warning : 
    From function virtual void Foam::probes::findElements(const Foam::fvMesh&)
    in file probes/probes.C at line 119
    Did not find location (288.49 2533.87 11.5) in any cell. Skipping location.
--> FOAM Warning : 
    From function virtual void Foam::probes::findElements(const Foam::fvMesh&)
    in file probes/probes.C at line 119
    Did not find location (291.585 2533.87 11.5) in any cell. Skipping location.
--> FOAM Warning : 
    From function virtual void Foam::probes::findElements(const Foam::fvMesh&)
    in file probes/probes.C at line 119
    Did not find location (294.679 2533.87 11.5) in any cell. Skipping location.
--> FOAM Warning : 
    From function virtual void Foam::probes::findElements(const Foam::fvMesh&)
    in file probes/probes.C at line 119
    Did not find location (297.773 2533.87 11.5) in any cell. Skipping location.
--> FOAM Warning : 
    From function virtual void Foam::probes::findElements(const Foam::fvMesh&)
    in file probes/probes.C at line 119
    Did not find location (300.868 2533.87 11.5) in any cell. Skipping location.
--> FOAM Warning : 
    From function virtual void Foam::probes::findElements(const Foam::fvMesh&)
    in file probes/probes.C at line 119
    Did not find location (303.962 2533.87 11.5) in any cell. Skipping location.
--> FOAM Warning : 
    From function virtual void Foam::probes::findElements(const Foam::fvMesh&)
    in file probes/probes.C at line 119
    Did not find location (307.056 2533.87 11.5) in any cell. Skipping location.
--> FOAM Warning : 
    From function virtual void Foam::probes::findElements(const Foam::fvMesh&)
    in file probes/probes.C at line 119
    Did not find location (310.151 2533.87 11.5) in any cell. Skipping location.
--> FOAM Warning : 
    From function virtual void Foam::probes::findElements(const Foam::fvMesh&)
    in file probes/probes.C at line 119
    Did not find location (313.245 2533.87 11.5) in any cell. Skipping location.
--> FOAM Warning : 
    From function virtual void Foam::probes::findElements(const Foam::fvMesh&)
    in file probes/probes.C at line 119
    Did not find location (316.339 2533.87 11.5) in any cell. Skipping location.
--> FOAM Warning : 
    From function virtual void Foam::probes::findElements(const Foam::fvMesh&)
    in file probes/probes.C at line 119
    Did not find location (319.434 2533.87 11.5) in any cell. Skipping location.
--> FOAM Warning : 
    From function virtual void Foam::probes::findElements(const Foam::fvMesh&)
    in file probes/probes.C at line 119
    Did not find location (322.528 2533.87 11.5) in any cell. Skipping location.
--> FOAM Warning : 
    From function virtual void Foam::probes::findElements(const Foam::fvMesh&)
    in file probes/probes.C at line 119
    Did not find location (325.622 2533.87 11.5) in any cell. Skipping location.
--> FOAM Warning : 
    From function virtual void Foam::probes::findElements(const Foam::fvMesh&)
    in file probes/probes.C at line 119
    Did not find location (328.717 2533.87 11.5) in any cell. Skipping location.
--> FOAM Warning : 
    From function virtual void Foam::probes::findElements(const Foam::fvMesh&)
    in file probes/probes.C at line 119
    Did not find location (331.811 2533.87 11.5) in any cell. Skipping location.
--> FOAM Warning : 
    From function virtual void Foam::probes::findElements(const Foam::fvMesh&)
    in file probes/probes.C at line 119
    Did not find location (334.905 2533.87 11.5) in any cell. Skipping location.
--> FOAM Warning : 
    From function virtual void Foam::probes::findElements(const Foam::fvMesh&)
    in file probes/probes.C at line 119
    Did not find location (338 2533.87 11.5) in any cell. Skipping location.
--> FOAM Warning : 
    From function virtual void Foam::probes::findElements(const Foam::fvMesh&)
    in file probes/probes.C at line 119
    Did not find location (341.094 2533.87 11.5) in any cell. Skipping location.
--> FOAM Warning : 
    From function virtual void Foam::probes::findElements(const Foam::fvMesh&)
    in file probes/probes.C at line 119
    Did not find location (344.188 2533.87 11.5) in any cell. Skipping location.
--> FOAM Warning : 
    From function virtual void Foam::probes::findElements(const Foam::fvMesh&)
    in file probes/probes.C at line 119
    Did not find location (347.283 2533.87 11.5) in any cell. Skipping location.
--> FOAM Warning : 
    From function virtual void Foam::probes::findElements(const Foam::fvMesh&)
    in file probes/probes.C at line 119
    Did not find location (350.377 2533.87 11.5) in any cell. Skipping location.
--> FOAM Warning : 
    From function virtual void Foam::probes::findElements(const Foam::fvMesh&)
    in file probes/probes.C at line 119
    Did not find location (353.471 2533.87 11.5) in any cell. Skipping location.
--> FOAM Warning : 
    From function virtual void Foam::probes::findElements(const Foam::fvMesh&)
    in file probes/probes.C at line 119
    Did not find location (356.566 2533.87 11.5) in any cell. Skipping location.
--> FOAM Warning : 
    From function virtual void Foam::probes::findElements(const Foam::fvMesh&)
    in file probes/probes.C at line 119
    Did not find location (359.66 2533.87 11.5) in any cell. Skipping location.
--> FOAM Warning : 
    From function virtual void Foam::probes::findElements(const Foam::fvMesh&)
    in file probes/probes.C at line 119
    Did not find location (362.754 2533.87 11.5) in any cell. Skipping location.
--> FOAM Warning : 
    From function virtual void Foam::probes::findElements(const Foam::fvMesh&)
    in file probes/probes.C at line 119
    Did not find location (365.849 2533.87 11.5) in any cell. Skipping location.
--> FOAM Warning : 
    From function virtual void Foam::probes::findElements(const Foam::fvMesh&)
    in file probes/probes.C at line 119
    Did not find location (368.943 2533.87 11.5) in any cell. Skipping location.
--> FOAM Warning : 
    From function virtual void Foam::probes::findElements(const Foam::fvMesh&)
    in file probes/probes.C at line 119
    Did not find location (372.037 2533.87 11.5) in any cell. Skipping location.
--> FOAM Warning : 
    From function virtual void Foam::probes::findElements(const Foam::fvMesh&)
    in file probes/probes.C at line 119
    Did not find location (375.132 2533.87 11.5) in any cell. Skipping location.
--> FOAM Warning : 
    From function virtual void Foam::probes::findElements(const Foam::fvMesh&)
    in file probes/probes.C at line 119
    Did not find location (378.226 2533.87 11.5) in any cell. Skipping location.
--> FOAM Warning : 
    From function virtual void Foam::probes::findElements(const Foam::fvMesh&)
    in file probes/probes.C at line 119
    Did not find location (381.32 2533.87 11.5) in any cell. Skipping location.
--> FOAM Warning : 
    From function virtual void Foam::probes::findElements(const Foam::fvMesh&)
    in file probes/probes.C at line 119
    Did not find location (384.415 2533.87 11.5) in any cell. Skipping location.
--> FOAM Warning : 
    From function virtual void Foam::probes::findElements(const Foam::fvMesh&)
    in file probes/probes.C at line 119
    Did not find location (387.509 2533.87 11.5) in any cell. Skipping location.
--> FOAM Warning : 
    From function virtual void Foam::probes::findElements(const Foam::fvMesh&)
    in file probes/probes.C at line 119
    Did not find location (390.604 2533.87 11.5) in any cell. Skipping location.
--> FOAM Warning : 
    From function virtual void Foam::probes::findElements(const Foam::fvMesh&)
    in file probes/probes.C at line 119
    Did not find location (393.698 2533.87 11.5) in any cell. Skipping location.
--> FOAM Warning : 
    From function virtual void Foam::probes::findElements(const Foam::fvMesh&)
    in file probes/probes.C at line 119
    Did not find location (396.792 2533.87 11.5) in any cell. Skipping location.
--> FOAM Warning : 
    From function virtual void Foam::probes::findElements(const Foam::fvMesh&)
    in file probes/probes.C at line 119
    Did not find location (399.887 2533.87 11.5) in any cell. Skipping location.
--> FOAM Warning : 
    From function virtual void Foam::probes::findElements(const Foam::fvMesh&)
    in file probes/probes.C at line 119
    Did not find location (402.981 2533.87 11.5) in any cell. Skipping location.
--> FOAM Warning : 
    From function virtual void Foam::probes::findElements(const Foam::fvMesh&)
    in file probes/probes.C at line 119
    Did not find location (406.075 2533.87 11.5) in any cell. Skipping location.
--> FOAM Warning : 
    From function virtual void Foam::probes::findElements(const Foam::fvMesh&)
    in file probes/probes.C at line 119
    Did not find location (409.17 2533.87 11.5) in any cell. Skipping location.
--> FOAM Warning : 
    From function virtual void Foam::probes::findElements(const Foam::fvMesh&)
    in file probes/probes.C at line 119
    Did not find location (412.264 2533.87 11.5) in any cell. Skipping location.
--> FOAM Warning : 
    From function virtual void Foam::probes::findElements(const Foam::fvMesh&)
    in file probes/probes.C at line 119
    Did not find location (415.358 2533.87 11.5) in any cell. Skipping location.
--> FOAM Warning : 
    From function virtual void Foam::probes::findElements(const Foam::fvMesh&)
    in file probes/probes.C at line 119
    Did not find location (418.453 2533.87 11.5) in any cell. Skipping location.
--> FOAM Warning : 
    From function virtual void Foam::probes::findElements(const Foam::fvMesh&)
    in file probes/probes.C at line 119
    Did not find location (421.547 2533.87 11.5) in any cell. Skipping location.
--> FOAM Warning : 
    From function virtual void Foam::probes::findElements(const Foam::fvMesh&)
    in file probes/probes.C at line 119
    Did not find location (424.641 2533.87 11.5) in any cell. Skipping location.
--> FOAM Warning : 
    From function virtual void Foam::probes::findElements(const Foam::fvMesh&)
    in file probes/probes.C at line 119
    Did not find location (427.736 2533.87 11.5) in any cell. Skipping location.
--> FOAM Warning : 
    From function virtual void Foam::probes::findElements(const Foam::fvMesh&)
    in file probes/probes.C at line 119
    Did not find location (430.83 2533.87 11.5) in any cell. Skipping location.
--> FOAM Warning : 
    From function virtual void Foam::probes::findElements(const Foam::fvMesh&)
    in file probes/probes.C at line 119
    Did not find location (433.924 2533.87 11.5) in any cell. Skipping location.
--> FOAM Warning : 
    From function virtual void Foam::probes::findElements(const Foam::fvMesh&)
    in file probes/probes.C at line 119
    Did not find location (437.019 2533.87 11.5) in any cell. Skipping location.
--> FOAM Warning : 
    From function virtual void Foam::probes::findElements(const Foam::fvMesh&)
    in file probes/probes.C at line 119
    Did not find location (440.113 2533.87 11.5) in any cell. Skipping location.
--> FOAM Warning : 
    From function virtual void Foam::probes::findElements(const Foam::fvMesh&)
    in file probes/probes.C at line 119
    Did not find location (443.207 2533.87 11.5) in any cell. Skipping location.
--> FOAM Warning : 
    From function virtual void Foam::probes::findElements(const Foam::fvMesh&)
    in file probes/probes.C at line 119
    Did not find location (446.302 2533.87 11.5) in any cell. Skipping location.
--> FOAM Warning : 
    From function virtual void Foam::probes::findElements(const Foam::fvMesh&)
    in file probes/probes.C at line 119
    Did not find location (449.396 2533.87 11.5) in any cell. Skipping location.
--> FOAM Warning : 
    From function virtual void Foam::probes::findElements(const Foam::fvMesh&)
    in file probes/probes.C at line 119
    Did not find location (452.49 2533.87 11.5) in any cell. Skipping location.
--> FOAM Warning : 
    From function virtual void Foam::probes::findElements(const Foam::fvMesh&)
    in file probes/probes.C at line 119
    Did not find location (455.585 2533.87 11.5) in any cell. Skipping location.
--> FOAM Warning : 
    From function virtual void Foam::probes::findElements(const Foam::fvMesh&)
    in file probes/probes.C at line 119
    Did not find location (458.679 2533.87 11.5) in any cell. Skipping location.
--> FOAM Warning : 
    From function virtual void Foam::probes::findElements(const Foam::fvMesh&)
    in file probes/probes.C at line 119
    Did not find location (149.245 2537.24 11.5) in any cell. Skipping location.
--> FOAM Warning : 
    From function virtual void Foam::probes::findElements(const Foam::fvMesh&)
    in file probes/probes.C at line 119
    Did not find location (152.339 2537.24 11.5) in any cell. Skipping location.
--> FOAM Warning : 
    From function virtual void Foam::probes::findElements(const Foam::fvMesh&)
    in file probes/probes.C at line 119
    Did not find location (155.434 2537.24 11.5) in any cell. Skipping location.
--> FOAM Warning : 
    From function virtual void Foam::probes::findElements(const Foam::fvMesh&)
    in file probes/probes.C at line 119
    Did not find location (158.528 2537.24 11.5) in any cell. Skipping location.
--> FOAM Warning : 
    From function virtual void Foam::probes::findElements(const Foam::fvMesh&)
    in file probes/probes.C at line 119
    Did not find location (161.622 2537.24 11.5) in any cell. Skipping location.
--> FOAM Warning : 
    From function virtual void Foam::probes::findElements(const Foam::fvMesh&)
    in file probes/probes.C at line 119
    Did not find location (164.717 2537.24 11.5) in any cell. Skipping location.
--> FOAM Warning : 
    From function virtual void Foam::probes::findElements(const Foam::fvMesh&)
    in file probes/probes.C at line 119
    Did not find location (167.811 2537.24 11.5) in any cell. Skipping location.
--> FOAM Warning : 
    From function virtual void Foam::probes::findElements(const Foam::fvMesh&)
    in file probes/probes.C at line 119
    Did not find location (170.905 2537.24 11.5) in any cell. Skipping location.
--> FOAM Warning : 
    From function virtual void Foam::probes::findElements(const Foam::fvMesh&)
    in file probes/probes.C at line 119
    Did not find location (174 2537.24 11.5) in any cell. Skipping location.
--> FOAM Warning : 
    From function virtual void Foam::probes::findElements(const Foam::fvMesh&)
    in file probes/probes.C at line 119
    Did not find location (177.094 2537.24 11.5) in any cell. Skipping location.
--> FOAM Warning : 
    From function virtual void Foam::probes::findElements(const Foam::fvMesh&)
    in file probes/probes.C at line 119
    Did not find location (180.188 2537.24 11.5) in any cell. Skipping location.
--> FOAM Warning : 
    From function virtual void Foam::probes::findElements(const Foam::fvMesh&)
    in file probes/probes.C at line 119
    Did not find location (183.283 2537.24 11.5) in any cell. Skipping location.
--> FOAM Warning : 
    From function virtual void Foam::probes::findElements(const Foam::fvMesh&)
    in file probes/probes.C at line 119
    Did not find location (186.377 2537.24 11.5) in any cell. Skipping location.
--> FOAM Warning : 
    From function virtual void Foam::probes::findElements(const Foam::fvMesh&)
    in file probes/probes.C at line 119
    Did not find location (189.471 2537.24 11.5) in any cell. Skipping location.
--> FOAM Warning : 
    From function virtual void Foam::probes::findElements(const Foam::fvMesh&)
    in file probes/probes.C at line 119
    Did not find location (192.566 2537.24 11.5) in any cell. Skipping location.
--> FOAM Warning : 
    From function virtual void Foam::probes::findElements(const Foam::fvMesh&)
    in file probes/probes.C at line 119
    Did not find location (195.66 2537.24 11.5) in any cell. Skipping location.
--> FOAM Warning : 
    From function virtual void Foam::probes::findElements(const Foam::fvMesh&)
    in file probes/probes.C at line 119
    Did not find location (198.754 2537.24 11.5) in any cell. Skipping location.
--> FOAM Warning : 
    From function virtual void Foam::probes::findElements(const Foam::fvMesh&)
    in file probes/probes.C at line 119
    Did not find location (201.849 2537.24 11.5) in any cell. Skipping location.
--> FOAM Warning : 
    From function virtual void Foam::probes::findElements(const Foam::fvMesh&)
    in file probes/probes.C at line 119
    Did not find location (204.943 2537.24 11.5) in any cell. Skipping location.
--> FOAM Warning : 
    From function virtual void Foam::probes::findElements(const Foam::fvMesh&)
    in file probes/probes.C at line 119
    Did not find location (208.037 2537.24 11.5) in any cell. Skipping location.
--> FOAM Warning : 
    From function virtual void Foam::probes::findElements(const Foam::fvMesh&)
    in file probes/probes.C at line 119
    Did not find location (211.132 2537.24 11.5) in any cell. Skipping location.
--> FOAM Warning : 
    From function virtual void Foam::probes::findElements(const Foam::fvMesh&)
    in file probes/probes.C at line 119
    Did not find location (214.226 2537.24 11.5) in any cell. Skipping location.
--> FOAM Warning : 
    From function virtual void Foam::probes::findElements(const Foam::fvMesh&)
    in file probes/probes.C at line 119
    Did not find location (217.32 2537.24 11.5) in any cell. Skipping location.
--> FOAM Warning : 
    From function virtual void Foam::probes::findElements(const Foam::fvMesh&)
    in file probes/probes.C at line 119
    Did not find location (220.415 2537.24 11.5) in any cell. Skipping location.
--> FOAM Warning : 
    From function virtual void Foam::probes::findElements(const Foam::fvMesh&)
    in file probes/probes.C at line 119
    Did not find location (223.509 2537.24 11.5) in any cell. Skipping location.
--> FOAM Warning : 
    From function virtual void Foam::probes::findElements(const Foam::fvMesh&)
    in file probes/probes.C at line 119
    Did not find location (226.603 2537.24 11.5) in any cell. Skipping location.
--> FOAM Warning : 
    From function virtual void Foam::probes::findElements(const Foam::fvMesh&)
    in file probes/probes.C at line 119
    Did not find location (229.698 2537.24 11.5) in any cell. Skipping location.
--> FOAM Warning : 
    From function virtual void Foam::probes::findElements(const Foam::fvMesh&)
    in file probes/probes.C at line 119
    Did not find location (232.792 2537.24 11.5) in any cell. Skipping location.
--> FOAM Warning : 
    From function virtual void Foam::probes::findElements(const Foam::fvMesh&)
    in file probes/probes.C at line 119
    Did not find location (235.887 2537.24 11.5) in any cell. Skipping location.
--> FOAM Warning : 
    From function virtual void Foam::probes::findElements(const Foam::fvMesh&)
    in file probes/probes.C at line 119
    Did not find location (238.981 2537.24 11.5) in any cell. Skipping location.
--> FOAM Warning : 
    From function virtual void Foam::probes::findElements(const Foam::fvMesh&)
    in file probes/probes.C at line 119
    Did not find location (242.075 2537.24 11.5) in any cell. Skipping location.
--> FOAM Warning : 
    From function virtual void Foam::probes::findElements(const Foam::fvMesh&)
    in file probes/probes.C at line 119
    Did not find location (245.17 2537.24 11.5) in any cell. Skipping location.
--> FOAM Warning : 
    From function virtual void Foam::probes::findElements(const Foam::fvMesh&)
    in file probes/probes.C at line 119
    Did not find location (248.264 2537.24 11.5) in any cell. Skipping location.
--> FOAM Warning : 
    From function virtual void Foam::probes::findElements(const Foam::fvMesh&)
    in file probes/probes.C at line 119
    Did not find location (251.358 2537.24 11.5) in any cell. Skipping location.
--> FOAM Warning : 
    From function virtual void Foam::probes::findElements(const Foam::fvMesh&)
    in file probes/probes.C at line 119
    Did not find location (254.453 2537.24 11.5) in any cell. Skipping location.
--> FOAM Warning : 
    From function virtual void Foam::probes::findElements(const Foam::fvMesh&)
    in file probes/probes.C at line 119
    Did not find location (257.547 2537.24 11.5) in any cell. Skipping location.
--> FOAM Warning : 
    From function virtual void Foam::probes::findElements(const Foam::fvMesh&)
    in file probes/probes.C at line 119
    Did not find location (260.641 2537.24 11.5) in any cell. Skipping location.
--> FOAM Warning : 
    From function virtual void Foam::probes::findElements(const Foam::fvMesh&)
    in file probes/probes.C at line 119
    Did not find location (263.736 2537.24 11.5) in any cell. Skipping location.
--> FOAM Warning : 
    From function virtual void Foam::probes::findElements(const Foam::fvMesh&)
    in file probes/probes.C at line 119
    Did not find location (266.83 2537.24 11.5) in any cell. Skipping location.
--> FOAM Warning : 
    From function virtual void Foam::probes::findElements(const Foam::fvMesh&)
    in file probes/probes.C at line 119
    Did not find location (269.924 2537.24 11.5) in any cell. Skipping location.
--> FOAM Warning : 
    From function virtual void Foam::probes::findElements(const Foam::fvMesh&)
    in file probes/probes.C at line 119
    Did not find location (273.019 2537.24 11.5) in any cell. Skipping location.
--> FOAM Warning : 
    From function virtual void Foam::probes::findElements(const Foam::fvMesh&)
    in file probes/probes.C at line 119
    Did not find location (276.113 2537.24 11.5) in any cell. Skipping location.
--> FOAM Warning : 
    From function virtual void Foam::probes::findElements(const Foam::fvMesh&)
    in file probes/probes.C at line 119
    Did not find location (279.207 2537.24 11.5) in any cell. Skipping location.
--> FOAM Warning : 
    From function virtual void Foam::probes::findElements(const Foam::fvMesh&)
    in file probes/probes.C at line 119
    Did not find location (282.302 2537.24 11.5) in any cell. Skipping location.
--> FOAM Warning : 
    From function virtual void Foam::probes::findElements(const Foam::fvMesh&)
    in file probes/probes.C at line 119
    Did not find location (285.396 2537.24 11.5) in any cell. Skipping location.
--> FOAM Warning : 
    From function virtual void Foam::probes::findElements(const Foam::fvMesh&)
    in file probes/probes.C at line 119
    Did not find location (288.49 2537.24 11.5) in any cell. Skipping location.
--> FOAM Warning : 
    From function virtual void Foam::probes::findElements(const Foam::fvMesh&)
    in file probes/probes.C at line 119
    Did not find location (291.585 2537.24 11.5) in any cell. Skipping location.
--> FOAM Warning : 
    From function virtual void Foam::probes::findElements(const Foam::fvMesh&)
    in file probes/probes.C at line 119
    Did not find location (294.679 2537.24 11.5) in any cell. Skipping location.
--> FOAM Warning : 
    From function virtual void Foam::probes::findElements(const Foam::fvMesh&)
    in file probes/probes.C at line 119
    Did not find location (297.773 2537.24 11.5) in any cell. Skipping location.
--> FOAM Warning : 
    From function virtual void Foam::probes::findElements(const Foam::fvMesh&)
    in file probes/probes.C at line 119
    Did not find location (300.868 2537.24 11.5) in any cell. Skipping location.
--> FOAM Warning : 
    From function virtual void Foam::probes::findElements(const Foam::fvMesh&)
    in file probes/probes.C at line 119
    Did not find location (303.962 2537.24 11.5) in any cell. Skipping location.
--> FOAM Warning : 
    From function virtual void Foam::probes::findElements(const Foam::fvMesh&)
    in file probes/probes.C at line 119
    Did not find location (307.056 2537.24 11.5) in any cell. Skipping location.
--> FOAM Warning : 
    From function virtual void Foam::probes::findElements(const Foam::fvMesh&)
    in file probes/probes.C at line 119
    Did not find location (310.151 2537.24 11.5) in any cell. Skipping location.
--> FOAM Warning : 
    From function virtual void Foam::probes::findElements(const Foam::fvMesh&)
    in file probes/probes.C at line 119
    Did not find location (313.245 2537.24 11.5) in any cell. Skipping location.
--> FOAM Warning : 
    From function virtual void Foam::probes::findElements(const Foam::fvMesh&)
    in file probes/probes.C at line 119
    Did not find location (316.339 2537.24 11.5) in any cell. Skipping location.
--> FOAM Warning : 
    From function virtual void Foam::probes::findElements(const Foam::fvMesh&)
    in file probes/probes.C at line 119
    Did not find location (319.434 2537.24 11.5) in any cell. Skipping location.
--> FOAM Warning : 
    From function virtual void Foam::probes::findElements(const Foam::fvMesh&)
    in file probes/probes.C at line 119
    Did not find location (322.528 2537.24 11.5) in any cell. Skipping location.
--> FOAM Warning : 
    From function virtual void Foam::probes::findElements(const Foam::fvMesh&)
    in file probes/probes.C at line 119
    Did not find location (325.622 2537.24 11.5) in any cell. Skipping location.
--> FOAM Warning : 
    From function virtual void Foam::probes::findElements(const Foam::fvMesh&)
    in file probes/probes.C at line 119
    Did not find location (328.717 2537.24 11.5) in any cell. Skipping location.
--> FOAM Warning : 
    From function virtual void Foam::probes::findElements(const Foam::fvMesh&)
    in file probes/probes.C at line 119
    Did not find location (331.811 2537.24 11.5) in any cell. Skipping location.
--> FOAM Warning : 
    From function virtual void Foam::probes::findElements(const Foam::fvMesh&)
    in file probes/probes.C at line 119
    Did not find location (334.905 2537.24 11.5) in any cell. Skipping location.
--> FOAM Warning : 
    From function virtual void Foam::probes::findElements(const Foam::fvMesh&)
    in file probes/probes.C at line 119
    Did not find location (338 2537.24 11.5) in any cell. Skipping location.
--> FOAM Warning : 
    From function virtual void Foam::probes::findElements(const Foam::fvMesh&)
    in file probes/probes.C at line 119
    Did not find location (341.094 2537.24 11.5) in any cell. Skipping location.
--> FOAM Warning : 
    From function virtual void Foam::probes::findElements(const Foam::fvMesh&)
    in file probes/probes.C at line 119
    Did not find location (344.188 2537.24 11.5) in any cell. Skipping location.
--> FOAM Warning : 
    From function virtual void Foam::probes::findElements(const Foam::fvMesh&)
    in file probes/probes.C at line 119
    Did not find location (347.283 2537.24 11.5) in any cell. Skipping location.
--> FOAM Warning : 
    From function virtual void Foam::probes::findElements(const Foam::fvMesh&)
    in file probes/probes.C at line 119
    Did not find location (350.377 2537.24 11.5) in any cell. Skipping location.
--> FOAM Warning : 
    From function virtual void Foam::probes::findElements(const Foam::fvMesh&)
    in file probes/probes.C at line 119
    Did not find location (353.471 2537.24 11.5) in any cell. Skipping location.
--> FOAM Warning : 
    From function virtual void Foam::probes::findElements(const Foam::fvMesh&)
    in file probes/probes.C at line 119
    Did not find location (356.566 2537.24 11.5) in any cell. Skipping location.
--> FOAM Warning : 
    From function virtual void Foam::probes::findElements(const Foam::fvMesh&)
    in file probes/probes.C at line 119
    Did not find location (359.66 2537.24 11.5) in any cell. Skipping location.
--> FOAM Warning : 
    From function virtual void Foam::probes::findElements(const Foam::fvMesh&)
    in file probes/probes.C at line 119
    Did not find location (362.754 2537.24 11.5) in any cell. Skipping location.
--> FOAM Warning : 
    From function virtual void Foam::probes::findElements(const Foam::fvMesh&)
    in file probes/probes.C at line 119
    Did not find location (365.849 2537.24 11.5) in any cell. Skipping location.
--> FOAM Warning : 
    From function virtual void Foam::probes::findElements(const Foam::fvMesh&)
    in file probes/probes.C at line 119
    Did not find location (368.943 2537.24 11.5) in any cell. Skipping location.
--> FOAM Warning : 
    From function virtual void Foam::probes::findElements(const Foam::fvMesh&)
    in file probes/probes.C at line 119
    Did not find location (372.037 2537.24 11.5) in any cell. Skipping location.
--> FOAM Warning : 
    From function virtual void Foam::probes::findElements(const Foam::fvMesh&)
    in file probes/probes.C at line 119
    Did not find location (375.132 2537.24 11.5) in any cell. Skipping location.
--> FOAM Warning : 
    From function virtual void Foam::probes::findElements(const Foam::fvMesh&)
    in file probes/probes.C at line 119
    Did not find location (378.226 2537.24 11.5) in any cell. Skipping location.
--> FOAM Warning : 
    From function virtual void Foam::probes::findElements(const Foam::fvMesh&)
    in file probes/probes.C at line 119
    Did not find location (381.32 2537.24 11.5) in any cell. Skipping location.
--> FOAM Warning : 
    From function virtual void Foam::probes::findElements(const Foam::fvMesh&)
    in file probes/probes.C at line 119
    Did not find location (384.415 2537.24 11.5) in any cell. Skipping location.
--> FOAM Warning : 
    From function virtual void Foam::probes::findElements(const Foam::fvMesh&)
    in file probes/probes.C at line 119
    Did not find location (387.509 2537.24 11.5) in any cell. Skipping location.
--> FOAM Warning : 
    From function virtual void Foam::probes::findElements(const Foam::fvMesh&)
    in file probes/probes.C at line 119
    Did not find location (390.604 2537.24 11.5) in any cell. Skipping location.
--> FOAM Warning : 
    From function virtual void Foam::probes::findElements(const Foam::fvMesh&)
    in file probes/probes.C at line 119
    Did not find location (393.698 2537.24 11.5) in any cell. Skipping location.
--> FOAM Warning : 
    From function virtual void Foam::probes::findElements(const Foam::fvMesh&)
    in file probes/probes.C at line 119
    Did not find location (396.792 2537.24 11.5) in any cell. Skipping location.
--> FOAM Warning : 
    From function virtual void Foam::probes::findElements(const Foam::fvMesh&)
    in file probes/probes.C at line 119
    Did not find location (399.887 2537.24 11.5) in any cell. Skipping location.
--> FOAM Warning : 
    From function virtual void Foam::probes::findElements(const Foam::fvMesh&)
    in file probes/probes.C at line 119
    Did not find location (402.981 2537.24 11.5) in any cell. Skipping location.
--> FOAM Warning : 
    From function virtual void Foam::probes::findElements(const Foam::fvMesh&)
    in file probes/probes.C at line 119
    Did not find location (406.075 2537.24 11.5) in any cell. Skipping location.
--> FOAM Warning : 
    From function virtual void Foam::probes::findElements(const Foam::fvMesh&)
    in file probes/probes.C at line 119
    Did not find location (409.17 2537.24 11.5) in any cell. Skipping location.
--> FOAM Warning : 
    From function virtual void Foam::probes::findElements(const Foam::fvMesh&)
    in file probes/probes.C at line 119
    Did not find location (412.264 2537.24 11.5) in any cell. Skipping location.
--> FOAM Warning : 
    From function virtual void Foam::probes::findElements(const Foam::fvMesh&)
    in file probes/probes.C at line 119
    Did not find location (415.358 2537.24 11.5) in any cell. Skipping location.
--> FOAM Warning : 
    From function virtual void Foam::probes::findElements(const Foam::fvMesh&)
    in file probes/probes.C at line 119
    Did not find location (418.453 2537.24 11.5) in any cell. Skipping location.
--> FOAM Warning : 
    From function virtual void Foam::probes::findElements(const Foam::fvMesh&)
    in file probes/probes.C at line 119
    Did not find location (421.547 2537.24 11.5) in any cell. Skipping location.
--> FOAM Warning : 
    From function virtual void Foam::probes::findElements(const Foam::fvMesh&)
    in file probes/probes.C at line 119
    Did not find location (424.641 2537.24 11.5) in any cell. Skipping location.
--> FOAM Warning : 
    From function virtual void Foam::probes::findElements(const Foam::fvMesh&)
    in file probes/probes.C at line 119
    Did not find location (427.736 2537.24 11.5) in any cell. Skipping location.
--> FOAM Warning : 
    From function virtual void Foam::probes::findElements(const Foam::fvMesh&)
    in file probes/probes.C at line 119
    Did not find location (430.83 2537.24 11.5) in any cell. Skipping location.
--> FOAM Warning : 
    From function virtual void Foam::probes::findElements(const Foam::fvMesh&)
    in file probes/probes.C at line 119
    Did not find location (433.924 2537.24 11.5) in any cell. Skipping location.
--> FOAM Warning : 
    From function virtual void Foam::probes::findElements(const Foam::fvMesh&)
    in file probes/probes.C at line 119
    Did not find location (437.019 2537.24 11.5) in any cell. Skipping location.
--> FOAM Warning : 
    From function virtual void Foam::probes::findElements(const Foam::fvMesh&)
    in file probes/probes.C at line 119
    Did not find location (440.113 2537.24 11.5) in any cell. Skipping location.
--> FOAM Warning : 
    From function virtual void Foam::probes::findElements(const Foam::fvMesh&)
    in file probes/probes.C at line 119
    Did not find location (443.207 2537.24 11.5) in any cell. Skipping location.
--> FOAM Warning : 
    From function virtual void Foam::probes::findElements(const Foam::fvMesh&)
    in file probes/probes.C at line 119
    Did not find location (446.302 2537.24 11.5) in any cell. Skipping location.
--> FOAM Warning : 
    From function virtual void Foam::probes::findElements(const Foam::fvMesh&)
    in file probes/probes.C at line 119
    Did not find location (449.396 2537.24 11.5) in any cell. Skipping location.
--> FOAM Warning : 
    From function virtual void Foam::probes::findElements(const Foam::fvMesh&)
    in file probes/probes.C at line 119
    Did not find location (452.49 2537.24 11.5) in any cell. Skipping location.
--> FOAM Warning : 
    From function virtual void Foam::probes::findElements(const Foam::fvMesh&)
    in file probes/probes.C at line 119
    Did not find location (455.585 2537.24 11.5) in any cell. Skipping location.
--> FOAM Warning : 
    From function virtual void Foam::probes::findElements(const Foam::fvMesh&)
    in file probes/probes.C at line 119
    Did not find location (458.679 2537.24 11.5) in any cell. Skipping location.
--> FOAM Warning : 
    From function virtual void Foam::probes::findElements(const Foam::fvMesh&)
    in file probes/probes.C at line 119
    Did not find location (149.245 2540.6 11.5) in any cell. Skipping location.
--> FOAM Warning : 
    From function virtual void Foam::probes::findElements(const Foam::fvMesh&)
    in file probes/probes.C at line 119
    Did not find location (152.339 2540.6 11.5) in any cell. Skipping location.
--> FOAM Warning : 
    From function virtual void Foam::probes::findElements(const Foam::fvMesh&)
    in file probes/probes.C at line 119
    Did not find location (155.434 2540.6 11.5) in any cell. Skipping location.
--> FOAM Warning : 
    From function virtual void Foam::probes::findElements(const Foam::fvMesh&)
    in file probes/probes.C at line 119
    Did not find location (158.528 2540.6 11.5) in any cell. Skipping location.
--> FOAM Warning : 
    From function virtual void Foam::probes::findElements(const Foam::fvMesh&)
    in file probes/probes.C at line 119
    Did not find location (161.622 2540.6 11.5) in any cell. Skipping location.
--> FOAM Warning : 
    From function virtual void Foam::probes::findElements(const Foam::fvMesh&)
    in file probes/probes.C at line 119
    Did not find location (164.717 2540.6 11.5) in any cell. Skipping location.
--> FOAM Warning : 
    From function virtual void Foam::probes::findElements(const Foam::fvMesh&)
    in file probes/probes.C at line 119
    Did not find location (167.811 2540.6 11.5) in any cell. Skipping location.
--> FOAM Warning : 
    From function virtual void Foam::probes::findElements(const Foam::fvMesh&)
    in file probes/probes.C at line 119
    Did not find location (170.905 2540.6 11.5) in any cell. Skipping location.
--> FOAM Warning : 
    From function virtual void Foam::probes::findElements(const Foam::fvMesh&)
    in file probes/probes.C at line 119
    Did not find location (174 2540.6 11.5) in any cell. Skipping location.
--> FOAM Warning : 
    From function virtual void Foam::probes::findElements(const Foam::fvMesh&)
    in file probes/probes.C at line 119
    Did not find location (177.094 2540.6 11.5) in any cell. Skipping location.
--> FOAM Warning : 
    From function virtual void Foam::probes::findElements(const Foam::fvMesh&)
    in file probes/probes.C at line 119
    Did not find location (180.188 2540.6 11.5) in any cell. Skipping location.
--> FOAM Warning : 
    From function virtual void Foam::probes::findElements(const Foam::fvMesh&)
    in file probes/probes.C at line 119
    Did not find location (183.283 2540.6 11.5) in any cell. Skipping location.
--> FOAM Warning : 
    From function virtual void Foam::probes::findElements(const Foam::fvMesh&)
    in file probes/probes.C at line 119
    Did not find location (186.377 2540.6 11.5) in any cell. Skipping location.
--> FOAM Warning : 
    From function virtual void Foam::probes::findElements(const Foam::fvMesh&)
    in file probes/probes.C at line 119
    Did not find location (189.471 2540.6 11.5) in any cell. Skipping location.
--> FOAM Warning : 
    From function virtual void Foam::probes::findElements(const Foam::fvMesh&)
    in file probes/probes.C at line 119
    Did not find location (192.566 2540.6 11.5) in any cell. Skipping location.
--> FOAM Warning : 
    From function virtual void Foam::probes::findElements(const Foam::fvMesh&)
    in file probes/probes.C at line 119
    Did not find location (195.66 2540.6 11.5) in any cell. Skipping location.
--> FOAM Warning : 
    From function virtual void Foam::probes::findElements(const Foam::fvMesh&)
    in file probes/probes.C at line 119
    Did not find location (198.754 2540.6 11.5) in any cell. Skipping location.
--> FOAM Warning : 
    From function virtual void Foam::probes::findElements(const Foam::fvMesh&)
    in file probes/probes.C at line 119
    Did not find location (201.849 2540.6 11.5) in any cell. Skipping location.
--> FOAM Warning : 
    From function virtual void Foam::probes::findElements(const Foam::fvMesh&)
    in file probes/probes.C at line 119
    Did not find location (204.943 2540.6 11.5) in any cell. Skipping location.
--> FOAM Warning : 
    From function virtual void Foam::probes::findElements(const Foam::fvMesh&)
    in file probes/probes.C at line 119
    Did not find location (208.037 2540.6 11.5) in any cell. Skipping location.
--> FOAM Warning : 
    From function virtual void Foam::probes::findElements(const Foam::fvMesh&)
    in file probes/probes.C at line 119
    Did not find location (211.132 2540.6 11.5) in any cell. Skipping location.
--> FOAM Warning : 
    From function virtual void Foam::probes::findElements(const Foam::fvMesh&)
    in file probes/probes.C at line 119
    Did not find location (214.226 2540.6 11.5) in any cell. Skipping location.
--> FOAM Warning : 
    From function virtual void Foam::probes::findElements(const Foam::fvMesh&)
    in file probes/probes.C at line 119
    Did not find location (217.32 2540.6 11.5) in any cell. Skipping location.
--> FOAM Warning : 
    From function virtual void Foam::probes::findElements(const Foam::fvMesh&)
    in file probes/probes.C at line 119
    Did not find location (220.415 2540.6 11.5) in any cell. Skipping location.
--> FOAM Warning : 
    From function virtual void Foam::probes::findElements(const Foam::fvMesh&)
    in file probes/probes.C at line 119
    Did not find location (223.509 2540.6 11.5) in any cell. Skipping location.
--> FOAM Warning : 
    From function virtual void Foam::probes::findElements(const Foam::fvMesh&)
    in file probes/probes.C at line 119
    Did not find location (226.603 2540.6 11.5) in any cell. Skipping location.
--> FOAM Warning : 
    From function virtual void Foam::probes::findElements(const Foam::fvMesh&)
    in file probes/probes.C at line 119
    Did not find location (229.698 2540.6 11.5) in any cell. Skipping location.
--> FOAM Warning : 
    From function virtual void Foam::probes::findElements(const Foam::fvMesh&)
    in file probes/probes.C at line 119
    Did not find location (232.792 2540.6 11.5) in any cell. Skipping location.
--> FOAM Warning : 
    From function virtual void Foam::probes::findElements(const Foam::fvMesh&)
    in file probes/probes.C at line 119
    Did not find location (235.887 2540.6 11.5) in any cell. Skipping location.
--> FOAM Warning : 
    From function virtual void Foam::probes::findElements(const Foam::fvMesh&)
    in file probes/probes.C at line 119
    Did not find location (238.981 2540.6 11.5) in any cell. Skipping location.
--> FOAM Warning : 
    From function virtual void Foam::probes::findElements(const Foam::fvMesh&)
    in file probes/probes.C at line 119
    Did not find location (242.075 2540.6 11.5) in any cell. Skipping location.
--> FOAM Warning : 
    From function virtual void Foam::probes::findElements(const Foam::fvMesh&)
    in file probes/probes.C at line 119
    Did not find location (245.17 2540.6 11.5) in any cell. Skipping location.
--> FOAM Warning : 
    From function virtual void Foam::probes::findElements(const Foam::fvMesh&)
    in file probes/probes.C at line 119
    Did not find location (248.264 2540.6 11.5) in any cell. Skipping location.
--> FOAM Warning : 
    From function virtual void Foam::probes::findElements(const Foam::fvMesh&)
    in file probes/probes.C at line 119
    Did not find location (251.358 2540.6 11.5) in any cell. Skipping location.
--> FOAM Warning : 
    From function virtual void Foam::probes::findElements(const Foam::fvMesh&)
    in file probes/probes.C at line 119
    Did not find location (254.453 2540.6 11.5) in any cell. Skipping location.
--> FOAM Warning : 
    From function virtual void Foam::probes::findElements(const Foam::fvMesh&)
    in file probes/probes.C at line 119
    Did not find location (257.547 2540.6 11.5) in any cell. Skipping location.
--> FOAM Warning : 
    From function virtual void Foam::probes::findElements(const Foam::fvMesh&)
    in file probes/probes.C at line 119
    Did not find location (260.641 2540.6 11.5) in any cell. Skipping location.
--> FOAM Warning : 
    From function virtual void Foam::probes::findElements(const Foam::fvMesh&)
    in file probes/probes.C at line 119
    Did not find location (263.736 2540.6 11.5) in any cell. Skipping location.
--> FOAM Warning : 
    From function virtual void Foam::probes::findElements(const Foam::fvMesh&)
    in file probes/probes.C at line 119
    Did not find location (266.83 2540.6 11.5) in any cell. Skipping location.
--> FOAM Warning : 
    From function virtual void Foam::probes::findElements(const Foam::fvMesh&)
    in file probes/probes.C at line 119
    Did not find location (269.924 2540.6 11.5) in any cell. Skipping location.
--> FOAM Warning : 
    From function virtual void Foam::probes::findElements(const Foam::fvMesh&)
    in file probes/probes.C at line 119
    Did not find location (273.019 2540.6 11.5) in any cell. Skipping location.
--> FOAM Warning : 
    From function virtual void Foam::probes::findElements(const Foam::fvMesh&)
    in file probes/probes.C at line 119
    Did not find location (276.113 2540.6 11.5) in any cell. Skipping location.
--> FOAM Warning : 
    From function virtual void Foam::probes::findElements(const Foam::fvMesh&)
    in file probes/probes.C at line 119
    Did not find location (279.207 2540.6 11.5) in any cell. Skipping location.
--> FOAM Warning : 
    From function virtual void Foam::probes::findElements(const Foam::fvMesh&)
    in file probes/probes.C at line 119
    Did not find location (282.302 2540.6 11.5) in any cell. Skipping location.
--> FOAM Warning : 
    From function virtual void Foam::probes::findElements(const Foam::fvMesh&)
    in file probes/probes.C at line 119
    Did not find location (285.396 2540.6 11.5) in any cell. Skipping location.
--> FOAM Warning : 
    From function virtual void Foam::probes::findElements(const Foam::fvMesh&)
    in file probes/probes.C at line 119
    Did not find location (288.49 2540.6 11.5) in any cell. Skipping location.
--> FOAM Warning : 
    From function virtual void Foam::probes::findElements(const Foam::fvMesh&)
    in file probes/probes.C at line 119
    Did not find location (291.585 2540.6 11.5) in any cell. Skipping location.
--> FOAM Warning : 
    From function virtual void Foam::probes::findElements(const Foam::fvMesh&)
    in file probes/probes.C at line 119
    Did not find location (294.679 2540.6 11.5) in any cell. Skipping location.
--> FOAM Warning : 
    From function virtual void Foam::probes::findElements(const Foam::fvMesh&)
    in file probes/probes.C at line 119
    Did not find location (297.773 2540.6 11.5) in any cell. Skipping location.
--> FOAM Warning : 
    From function virtual void Foam::probes::findElements(const Foam::fvMesh&)
    in file probes/probes.C at line 119
    Did not find location (300.868 2540.6 11.5) in any cell. Skipping location.
--> FOAM Warning : 
    From function virtual void Foam::probes::findElements(const Foam::fvMesh&)
    in file probes/probes.C at line 119
    Did not find location (303.962 2540.6 11.5) in any cell. Skipping location.
--> FOAM Warning : 
    From function virtual void Foam::probes::findElements(const Foam::fvMesh&)
    in file probes/probes.C at line 119
    Did not find location (307.056 2540.6 11.5) in any cell. Skipping location.
--> FOAM Warning : 
    From function virtual void Foam::probes::findElements(const Foam::fvMesh&)
    in file probes/probes.C at line 119
    Did not find location (310.151 2540.6 11.5) in any cell. Skipping location.
--> FOAM Warning : 
    From function virtual void Foam::probes::findElements(const Foam::fvMesh&)
    in file probes/probes.C at line 119
    Did not find location (313.245 2540.6 11.5) in any cell. Skipping location.
--> FOAM Warning : 
    From function virtual void Foam::probes::findElements(const Foam::fvMesh&)
    in file probes/probes.C at line 119
    Did not find location (316.339 2540.6 11.5) in any cell. Skipping location.
--> FOAM Warning : 
    From function virtual void Foam::probes::findElements(const Foam::fvMesh&)
    in file probes/probes.C at line 119
    Did not find location (319.434 2540.6 11.5) in any cell. Skipping location.
--> FOAM Warning : 
    From function virtual void Foam::probes::findElements(const Foam::fvMesh&)
    in file probes/probes.C at line 119
    Did not find location (322.528 2540.6 11.5) in any cell. Skipping location.
--> FOAM Warning : 
    From function virtual void Foam::probes::findElements(const Foam::fvMesh&)
    in file probes/probes.C at line 119
    Did not find location (325.622 2540.6 11.5) in any cell. Skipping location.
--> FOAM Warning : 
    From function virtual void Foam::probes::findElements(const Foam::fvMesh&)
    in file probes/probes.C at line 119
    Did not find location (328.717 2540.6 11.5) in any cell. Skipping location.
--> FOAM Warning : 
    From function virtual void Foam::probes::findElements(const Foam::fvMesh&)
    in file probes/probes.C at line 119
    Did not find location (331.811 2540.6 11.5) in any cell. Skipping location.
--> FOAM Warning : 
    From function virtual void Foam::probes::findElements(const Foam::fvMesh&)
    in file probes/probes.C at line 119
    Did not find location (334.905 2540.6 11.5) in any cell. Skipping location.
--> FOAM Warning : 
    From function virtual void Foam::probes::findElements(const Foam::fvMesh&)
    in file probes/probes.C at line 119
    Did not find location (338 2540.6 11.5) in any cell. Skipping location.
--> FOAM Warning : 
    From function virtual void Foam::probes::findElements(const Foam::fvMesh&)
    in file probes/probes.C at line 119
    Did not find location (341.094 2540.6 11.5) in any cell. Skipping location.
--> FOAM Warning : 
    From function virtual void Foam::probes::findElements(const Foam::fvMesh&)
    in file probes/probes.C at line 119
    Did not find location (344.188 2540.6 11.5) in any cell. Skipping location.
--> FOAM Warning : 
    From function virtual void Foam::probes::findElements(const Foam::fvMesh&)
    in file probes/probes.C at line 119
    Did not find location (347.283 2540.6 11.5) in any cell. Skipping location.
--> FOAM Warning : 
    From function virtual void Foam::probes::findElements(const Foam::fvMesh&)
    in file probes/probes.C at line 119
    Did not find location (350.377 2540.6 11.5) in any cell. Skipping location.
--> FOAM Warning : 
    From function virtual void Foam::probes::findElements(const Foam::fvMesh&)
    in file probes/probes.C at line 119
    Did not find location (353.471 2540.6 11.5) in any cell. Skipping location.
--> FOAM Warning : 
    From function virtual void Foam::probes::findElements(const Foam::fvMesh&)
    in file probes/probes.C at line 119
    Did not find location (356.566 2540.6 11.5) in any cell. Skipping location.
--> FOAM Warning : 
    From function virtual void Foam::probes::findElements(const Foam::fvMesh&)
    in file probes/probes.C at line 119
    Did not find location (359.66 2540.6 11.5) in any cell. Skipping location.
--> FOAM Warning : 
    From function virtual void Foam::probes::findElements(const Foam::fvMesh&)
    in file probes/probes.C at line 119
    Did not find location (362.754 2540.6 11.5) in any cell. Skipping location.
--> FOAM Warning : 
    From function virtual void Foam::probes::findElements(const Foam::fvMesh&)
    in file probes/probes.C at line 119
    Did not find location (365.849 2540.6 11.5) in any cell. Skipping location.
--> FOAM Warning : 
    From function virtual void Foam::probes::findElements(const Foam::fvMesh&)
    in file probes/probes.C at line 119
    Did not find location (368.943 2540.6 11.5) in any cell. Skipping location.
--> FOAM Warning : 
    From function virtual void Foam::probes::findElements(const Foam::fvMesh&)
    in file probes/probes.C at line 119
    Did not find location (372.037 2540.6 11.5) in any cell. Skipping location.
--> FOAM Warning : 
    From function virtual void Foam::probes::findElements(const Foam::fvMesh&)
    in file probes/probes.C at line 119
    Did not find location (375.132 2540.6 11.5) in any cell. Skipping location.
--> FOAM Warning : 
    From function virtual void Foam::probes::findElements(const Foam::fvMesh&)
    in file probes/probes.C at line 119
    Did not find location (378.226 2540.6 11.5) in any cell. Skipping location.
--> FOAM Warning : 
    From function virtual void Foam::probes::findElements(const Foam::fvMesh&)
    in file probes/probes.C at line 119
    Did not find location (381.32 2540.6 11.5) in any cell. Skipping location.
--> FOAM Warning : 
    From function virtual void Foam::probes::findElements(const Foam::fvMesh&)
    in file probes/probes.C at line 119
    Did not find location (384.415 2540.6 11.5) in any cell. Skipping location.
--> FOAM Warning : 
    From function virtual void Foam::probes::findElements(const Foam::fvMesh&)
    in file probes/probes.C at line 119
    Did not find location (387.509 2540.6 11.5) in any cell. Skipping location.
--> FOAM Warning : 
    From function virtual void Foam::probes::findElements(const Foam::fvMesh&)
    in file probes/probes.C at line 119
    Did not find location (390.604 2540.6 11.5) in any cell. Skipping location.
--> FOAM Warning : 
    From function virtual void Foam::probes::findElements(const Foam::fvMesh&)
    in file probes/probes.C at line 119
    Did not find location (393.698 2540.6 11.5) in any cell. Skipping location.
--> FOAM Warning : 
    From function virtual void Foam::probes::findElements(const Foam::fvMesh&)
    in file probes/probes.C at line 119
    Did not find location (396.792 2540.6 11.5) in any cell. Skipping location.
--> FOAM Warning : 
    From function virtual void Foam::probes::findElements(const Foam::fvMesh&)
    in file probes/probes.C at line 119
    Did not find location (399.887 2540.6 11.5) in any cell. Skipping location.
--> FOAM Warning : 
    From function virtual void Foam::probes::findElements(const Foam::fvMesh&)
    in file probes/probes.C at line 119
    Did not find location (402.981 2540.6 11.5) in any cell. Skipping location.
--> FOAM Warning : 
    From function virtual void Foam::probes::findElements(const Foam::fvMesh&)
    in file probes/probes.C at line 119
    Did not find location (406.075 2540.6 11.5) in any cell. Skipping location.
--> FOAM Warning : 
    From function virtual void Foam::probes::findElements(const Foam::fvMesh&)
    in file probes/probes.C at line 119
    Did not find location (409.17 2540.6 11.5) in any cell. Skipping location.
--> FOAM Warning : 
    From function virtual void Foam::probes::findElements(const Foam::fvMesh&)
    in file probes/probes.C at line 119
    Did not find location (412.264 2540.6 11.5) in any cell. Skipping location.
--> FOAM Warning : 
    From function virtual void Foam::probes::findElements(const Foam::fvMesh&)
    in file probes/probes.C at line 119
    Did not find location (415.358 2540.6 11.5) in any cell. Skipping location.
--> FOAM Warning : 
    From function virtual void Foam::probes::findElements(const Foam::fvMesh&)
    in file probes/probes.C at line 119
    Did not find location (418.453 2540.6 11.5) in any cell. Skipping location.
--> FOAM Warning : 
    From function virtual void Foam::probes::findElements(const Foam::fvMesh&)
    in file probes/probes.C at line 119
    Did not find location (421.547 2540.6 11.5) in any cell. Skipping location.
--> FOAM Warning : 
    From function virtual void Foam::probes::findElements(const Foam::fvMesh&)
    in file probes/probes.C at line 119
    Did not find location (424.641 2540.6 11.5) in any cell. Skipping location.
--> FOAM Warning : 
    From function virtual void Foam::probes::findElements(const Foam::fvMesh&)
    in file probes/probes.C at line 119
    Did not find location (427.736 2540.6 11.5) in any cell. Skipping location.
--> FOAM Warning : 
    From function virtual void Foam::probes::findElements(const Foam::fvMesh&)
    in file probes/probes.C at line 119
    Did not find location (430.83 2540.6 11.5) in any cell. Skipping location.
--> FOAM Warning : 
    From function virtual void Foam::probes::findElements(const Foam::fvMesh&)
    in file probes/probes.C at line 119
    Did not find location (433.924 2540.6 11.5) in any cell. Skipping location.
--> FOAM Warning : 
    From function virtual void Foam::probes::findElements(const Foam::fvMesh&)
    in file probes/probes.C at line 119
    Did not find location (437.019 2540.6 11.5) in any cell. Skipping location.
--> FOAM Warning : 
    From function virtual void Foam::probes::findElements(const Foam::fvMesh&)
    in file probes/probes.C at line 119
    Did not find location (440.113 2540.6 11.5) in any cell. Skipping location.
--> FOAM Warning : 
    From function virtual void Foam::probes::findElements(const Foam::fvMesh&)
    in file probes/probes.C at line 119
    Did not find location (443.207 2540.6 11.5) in any cell. Skipping location.
--> FOAM Warning : 
    From function virtual void Foam::probes::findElements(const Foam::fvMesh&)
    in file probes/probes.C at line 119
    Did not find location (446.302 2540.6 11.5) in any cell. Skipping location.
--> FOAM Warning : 
    From function virtual void Foam::probes::findElements(const Foam::fvMesh&)
    in file probes/probes.C at line 119
    Did not find location (449.396 2540.6 11.5) in any cell. Skipping location.
--> FOAM Warning : 
    From function virtual void Foam::probes::findElements(const Foam::fvMesh&)
    in file probes/probes.C at line 119
    Did not find location (452.49 2540.6 11.5) in any cell. Skipping location.
--> FOAM Warning : 
    From function virtual void Foam::probes::findElements(const Foam::fvMesh&)
    in file probes/probes.C at line 119
    Did not find location (455.585 2540.6 11.5) in any cell. Skipping location.
--> FOAM Warning : 
    From function virtual void Foam::probes::findElements(const Foam::fvMesh&)
    in file probes/probes.C at line 119
    Did not find location (458.679 2540.6 11.5) in any cell. Skipping location.
--> FOAM Warning : 
    From function virtual void Foam::probes::findElements(const Foam::fvMesh&)
    in file probes/probes.C at line 119
    Did not find location (149.245 2543.97 11.5) in any cell. Skipping location.
--> FOAM Warning : 
    From function virtual void Foam::probes::findElements(const Foam::fvMesh&)
    in file probes/probes.C at line 119
    Did not find location (152.339 2543.97 11.5) in any cell. Skipping location.
--> FOAM Warning : 
    From function virtual void Foam::probes::findElements(const Foam::fvMesh&)
    in file probes/probes.C at line 119
    Did not find location (155.434 2543.97 11.5) in any cell. Skipping location.
--> FOAM Warning : 
    From function virtual void Foam::probes::findElements(const Foam::fvMesh&)
    in file probes/probes.C at line 119
    Did not find location (158.528 2543.97 11.5) in any cell. Skipping location.
--> FOAM Warning : 
    From function virtual void Foam::probes::findElements(const Foam::fvMesh&)
    in file probes/probes.C at line 119
    Did not find location (161.622 2543.97 11.5) in any cell. Skipping location.
--> FOAM Warning : 
    From function virtual void Foam::probes::findElements(const Foam::fvMesh&)
    in file probes/probes.C at line 119
    Did not find location (164.717 2543.97 11.5) in any cell. Skipping location.
--> FOAM Warning : 
    From function virtual void Foam::probes::findElements(const Foam::fvMesh&)
    in file probes/probes.C at line 119
    Did not find location (167.811 2543.97 11.5) in any cell. Skipping location.
--> FOAM Warning : 
    From function virtual void Foam::probes::findElements(const Foam::fvMesh&)
    in file probes/probes.C at line 119
    Did not find location (170.905 2543.97 11.5) in any cell. Skipping location.
--> FOAM Warning : 
    From function virtual void Foam::probes::findElements(const Foam::fvMesh&)
    in file probes/probes.C at line 119
    Did not find location (174 2543.97 11.5) in any cell. Skipping location.
--> FOAM Warning : 
    From function virtual void Foam::probes::findElements(const Foam::fvMesh&)
    in file probes/probes.C at line 119
    Did not find location (177.094 2543.97 11.5) in any cell. Skipping location.
--> FOAM Warning : 
    From function virtual void Foam::probes::findElements(const Foam::fvMesh&)
    in file probes/probes.C at line 119
    Did not find location (180.188 2543.97 11.5) in any cell. Skipping location.
--> FOAM Warning : 
    From function virtual void Foam::probes::findElements(const Foam::fvMesh&)
    in file probes/probes.C at line 119
    Did not find location (183.283 2543.97 11.5) in any cell. Skipping location.
--> FOAM Warning : 
    From function virtual void Foam::probes::findElements(const Foam::fvMesh&)
    in file probes/probes.C at line 119
    Did not find location (186.377 2543.97 11.5) in any cell. Skipping location.
--> FOAM Warning : 
    From function virtual void Foam::probes::findElements(const Foam::fvMesh&)
    in file probes/probes.C at line 119
    Did not find location (189.471 2543.97 11.5) in any cell. Skipping location.
--> FOAM Warning : 
    From function virtual void Foam::probes::findElements(const Foam::fvMesh&)
    in file probes/probes.C at line 119
    Did not find location (192.566 2543.97 11.5) in any cell. Skipping location.
--> FOAM Warning : 
    From function virtual void Foam::probes::findElements(const Foam::fvMesh&)
    in file probes/probes.C at line 119
    Did not find location (195.66 2543.97 11.5) in any cell. Skipping location.
--> FOAM Warning : 
    From function virtual void Foam::probes::findElements(const Foam::fvMesh&)
    in file probes/probes.C at line 119
    Did not find location (198.754 2543.97 11.5) in any cell. Skipping location.
--> FOAM Warning : 
    From function virtual void Foam::probes::findElements(const Foam::fvMesh&)
    in file probes/probes.C at line 119
    Did not find location (201.849 2543.97 11.5) in any cell. Skipping location.
--> FOAM Warning : 
    From function virtual void Foam::probes::findElements(const Foam::fvMesh&)
    in file probes/probes.C at line 119
    Did not find location (204.943 2543.97 11.5) in any cell. Skipping location.
--> FOAM Warning : 
    From function virtual void Foam::probes::findElements(const Foam::fvMesh&)
    in file probes/probes.C at line 119
    Did not find location (208.037 2543.97 11.5) in any cell. Skipping location.
--> FOAM Warning : 
    From function virtual void Foam::probes::findElements(const Foam::fvMesh&)
    in file probes/probes.C at line 119
    Did not find location (211.132 2543.97 11.5) in any cell. Skipping location.
--> FOAM Warning : 
    From function virtual void Foam::probes::findElements(const Foam::fvMesh&)
    in file probes/probes.C at line 119
    Did not find location (214.226 2543.97 11.5) in any cell. Skipping location.
--> FOAM Warning : 
    From function virtual void Foam::probes::findElements(const Foam::fvMesh&)
    in file probes/probes.C at line 119
    Did not find location (217.32 2543.97 11.5) in any cell. Skipping location.
--> FOAM Warning : 
    From function virtual void Foam::probes::findElements(const Foam::fvMesh&)
    in file probes/probes.C at line 119
    Did not find location (220.415 2543.97 11.5) in any cell. Skipping location.
--> FOAM Warning : 
    From function virtual void Foam::probes::findElements(const Foam::fvMesh&)
    in file probes/probes.C at line 119
    Did not find location (223.509 2543.97 11.5) in any cell. Skipping location.
--> FOAM Warning : 
    From function virtual void Foam::probes::findElements(const Foam::fvMesh&)
    in file probes/probes.C at line 119
    Did not find location (226.603 2543.97 11.5) in any cell. Skipping location.
--> FOAM Warning : 
    From function virtual void Foam::probes::findElements(const Foam::fvMesh&)
    in file probes/probes.C at line 119
    Did not find location (229.698 2543.97 11.5) in any cell. Skipping location.
--> FOAM Warning : 
    From function virtual void Foam::probes::findElements(const Foam::fvMesh&)
    in file probes/probes.C at line 119
    Did not find location (232.792 2543.97 11.5) in any cell. Skipping location.
--> FOAM Warning : 
    From function virtual void Foam::probes::findElements(const Foam::fvMesh&)
    in file probes/probes.C at line 119
    Did not find location (235.887 2543.97 11.5) in any cell. Skipping location.
--> FOAM Warning : 
    From function virtual void Foam::probes::findElements(const Foam::fvMesh&)
    in file probes/probes.C at line 119
    Did not find location (238.981 2543.97 11.5) in any cell. Skipping location.
--> FOAM Warning : 
    From function virtual void Foam::probes::findElements(const Foam::fvMesh&)
    in file probes/probes.C at line 119
    Did not find location (242.075 2543.97 11.5) in any cell. Skipping location.
--> FOAM Warning : 
    From function virtual void Foam::probes::findElements(const Foam::fvMesh&)
    in file probes/probes.C at line 119
    Did not find location (245.17 2543.97 11.5) in any cell. Skipping location.
--> FOAM Warning : 
    From function virtual void Foam::probes::findElements(const Foam::fvMesh&)
    in file probes/probes.C at line 119
    Did not find location (248.264 2543.97 11.5) in any cell. Skipping location.
--> FOAM Warning : 
    From function virtual void Foam::probes::findElements(const Foam::fvMesh&)
    in file probes/probes.C at line 119
    Did not find location (251.358 2543.97 11.5) in any cell. Skipping location.
--> FOAM Warning : 
    From function virtual void Foam::probes::findElements(const Foam::fvMesh&)
    in file probes/probes.C at line 119
    Did not find location (254.453 2543.97 11.5) in any cell. Skipping location.
--> FOAM Warning : 
    From function virtual void Foam::probes::findElements(const Foam::fvMesh&)
    in file probes/probes.C at line 119
    Did not find location (257.547 2543.97 11.5) in any cell. Skipping location.
--> FOAM Warning : 
    From function virtual void Foam::probes::findElements(const Foam::fvMesh&)
    in file probes/probes.C at line 119
    Did not find location (260.641 2543.97 11.5) in any cell. Skipping location.
--> FOAM Warning : 
    From function virtual void Foam::probes::findElements(const Foam::fvMesh&)
    in file probes/probes.C at line 119
    Did not find location (263.736 2543.97 11.5) in any cell. Skipping location.
--> FOAM Warning : 
    From function virtual void Foam::probes::findElements(const Foam::fvMesh&)
    in file probes/probes.C at line 119
    Did not find location (266.83 2543.97 11.5) in any cell. Skipping location.
--> FOAM Warning : 
    From function virtual void Foam::probes::findElements(const Foam::fvMesh&)
    in file probes/probes.C at line 119
    Did not find location (269.924 2543.97 11.5) in any cell. Skipping location.
--> FOAM Warning : 
    From function virtual void Foam::probes::findElements(const Foam::fvMesh&)
    in file probes/probes.C at line 119
    Did not find location (273.019 2543.97 11.5) in any cell. Skipping location.
--> FOAM Warning : 
    From function virtual void Foam::probes::findElements(const Foam::fvMesh&)
    in file probes/probes.C at line 119
    Did not find location (276.113 2543.97 11.5) in any cell. Skipping location.
--> FOAM Warning : 
    From function virtual void Foam::probes::findElements(const Foam::fvMesh&)
    in file probes/probes.C at line 119
    Did not find location (279.207 2543.97 11.5) in any cell. Skipping location.
--> FOAM Warning : 
    From function virtual void Foam::probes::findElements(const Foam::fvMesh&)
    in file probes/probes.C at line 119
    Did not find location (282.302 2543.97 11.5) in any cell. Skipping location.
--> FOAM Warning : 
    From function virtual void Foam::probes::findElements(const Foam::fvMesh&)
    in file probes/probes.C at line 119
    Did not find location (285.396 2543.97 11.5) in any cell. Skipping location.
--> FOAM Warning : 
    From function virtual void Foam::probes::findElements(const Foam::fvMesh&)
    in file probes/probes.C at line 119
    Did not find location (288.49 2543.97 11.5) in any cell. Skipping location.
--> FOAM Warning : 
    From function virtual void Foam::probes::findElements(const Foam::fvMesh&)
    in file probes/probes.C at line 119
    Did not find location (291.585 2543.97 11.5) in any cell. Skipping location.
--> FOAM Warning : 
    From function virtual void Foam::probes::findElements(const Foam::fvMesh&)
    in file probes/probes.C at line 119
    Did not find location (294.679 2543.97 11.5) in any cell. Skipping location.
--> FOAM Warning : 
    From function virtual void Foam::probes::findElements(const Foam::fvMesh&)
    in file probes/probes.C at line 119
    Did not find location (297.773 2543.97 11.5) in any cell. Skipping location.
--> FOAM Warning : 
    From function virtual void Foam::probes::findElements(const Foam::fvMesh&)
    in file probes/probes.C at line 119
    Did not find location (300.868 2543.97 11.5) in any cell. Skipping location.
--> FOAM Warning : 
    From function virtual void Foam::probes::findElements(const Foam::fvMesh&)
    in file probes/probes.C at line 119
    Did not find location (303.962 2543.97 11.5) in any cell. Skipping location.
--> FOAM Warning : 
[...]
--> FOAM Warning : 
    From function virtual void Foam::probes::findElements(const Foam::fvMesh&)
    in file probes/probes.C at line 119
    Did not find location (195.66 2870.56 11.5) in any cell. Skipping location.
--> FOAM Warning : 
    From function virtual void Foam::probes::findElements(const Foam::fvMesh&)
    in file probes/probes.C at line 119
    Did not find location (198.754 2870.56 11.5) in any cell. Skipping location.
--> FOAM Warning : 
    From function virtual void Foam::probes::findElements(const Foam::fvMesh&)
    in file probes/probes.C at line 119
    Did not find location (201.849 2870.56 11.5) in any cell. Skipping location.
--> FOAM Warning : 
    From function virtual void Foam::probes::findElements(const Foam::fvMesh&)
    in file probes/probes.C at line 119
    Did not find location (204.943 2870.56 11.5) in any cell. Skipping location.
--> FOAM Warning : 
    From function virtual void Foam::probes::findElements(const Foam::fvMesh&)
    in file probes/probes.C at line 119
    Did not find location (208.037 2870.56 11.5) in any cell. Skipping location.
--> FOAM Warning : 
    From function virtual void Foam::probes::findElements(const Foam::fvMesh&)
    in file probes/probes.C at line 119
    Did not find location (211.132 2870.56 11.5) in any cell. Skipping location.
--> FOAM Warning : 
    From function virtual void Foam::probes::findElements(const Foam::fvMesh&)
    in file probes/probes.C at line 119
    Did not find location (214.226 2870.56 11.5) in any cell. Skipping location.
--> FOAM Warning : 
    From function virtual void Foam::probes::findElements(const Foam::fvMesh&)
    in file probes/probes.C at line 119
    Did not find location (217.32 2870.56 11.5) in any cell. Skipping location.
--> FOAM Warning : 
    From function virtual void Foam::probes::findElements(const Foam::fvMesh&)
    in file probes/probes.C at line 119
    Did not find location (220.415 2870.56 11.5) in any cell. Skipping location.
--> FOAM Warning : 
    From function virtual void Foam::probes::findElements(const Foam::fvMesh&)
    in file probes/probes.C at line 119
    Did not find location (223.509 2870.56 11.5) in any cell. Skipping location.
--> FOAM Warning : 
    From function virtual void Foam::probes::findElements(const Foam::fvMesh&)
    in file probes/probes.C at line 119
    Did not find location (226.603 2870.56 11.5) in any cell. Skipping location.
--> FOAM Warning : 
    From function virtual void Foam::probes::findElements(const Foam::fvMesh&)
    in file probes/probes.C at line 119
    Did not find location (229.698 2870.56 11.5) in any cell. Skipping location.
--> FOAM Warning : 
    From function virtual void Foam::probes::findElements(const Foam::fvMesh&)
    in file probes/probes.C at line 119
    Did not find location (232.792 2870.56 11.5) in any cell. Skipping location.
--> FOAM Warning : 
    From function virtual void Foam::probes::findElements(const Foam::fvMesh&)
    in file probes/probes.C at line 119
    Did not find location (235.887 2870.56 11.5) in any cell. Skipping location.
--> FOAM Warning : 
    From function virtual void Foam::probes::findElements(const Foam::fvMesh&)
    in file probes/probes.C at line 119
    Did not find location (238.981 2870.56 11.5) in any cell. Skipping location.
--> FOAM Warning : 
    From function virtual void Foam::probes::findElements(const Foam::fvMesh&)
    in file probes/probes.C at line 119
    Did not find location (242.075 2870.56 11.5) in any cell. Skipping location.
--> FOAM Warning : 
    From function virtual void Foam::probes::findElements(const Foam::fvMesh&)
    in file probes/probes.C at line 119
    Did not find location (245.17 2870.56 11.5) in any cell. Skipping location.
--> FOAM Warning : 
    From function virtual void Foam::probes::findElements(const Foam::fvMesh&)
    in file probes/probes.C at line 119
    Did not find location (248.264 2870.56 11.5) in any cell. Skipping location.
--> FOAM Warning : 
    From function virtual void Foam::probes::findElements(const Foam::fvMesh&)
    in file probes/probes.C at line 119
    Did not find location (251.358 2870.56 11.5) in any cell. Skipping location.
--> FOAM Warning : 
    From function virtual void Foam::probes::findElements(const Foam::fvMesh&)
    in file probes/probes.C at line 119
    Did not find location (254.453 2870.56 11.5) in any cell. Skipping location.
--> FOAM Warning : 
    From function virtual void Foam::probes::findElements(const Foam::fvMesh&)
    in file probes/probes.C at line 119
    Did not find location (257.547 2870.56 11.5) in any cell. Skipping location.
--> FOAM Warning : 
    From function virtual void Foam::probes::findElements(const Foam::fvMesh&)
    in file probes/probes.C at line 119
    Did not find location (260.641 2870.56 11.5) in any cell. Skipping location.
--> FOAM Warning : 
    From function virtual void Foam::probes::findElements(const Foam::fvMesh&)
    in file probes/probes.C at line 119
    Did not find location (263.736 2870.56 11.5) in any cell. Skipping location.
--> FOAM Warning : 
    From function virtual void Foam::probes::findElements(const Foam::fvMesh&)
    in file probes/probes.C at line 119
    Did not find location (266.83 2870.56 11.5) in any cell. Skipping location.
--> FOAM Warning : 
    From function virtual void Foam::probes::findElements(const Foam::fvMesh&)
    in file probes/probes.C at line 119
    Did not find location (269.924 2870.56 11.5) in any cell. Skipping location.
--> FOAM Warning : 
    From function virtual void Foam::probes::findElements(const Foam::fvMesh&)
    in file probes/probes.C at line 119
    Did not find location (273.019 2870.56 11.5) in any cell. Skipping location.
--> FOAM Warning : 
    From function virtual void Foam::probes::findElements(const Foam::fvMesh&)
    in file probes/probes.C at line 119
    Did not find location (276.113 2870.56 11.5) in any cell. Skipping location.
--> FOAM Warning : 
    From function virtual void Foam::probes::findElements(const Foam::fvMesh&)
    in file probes/probes.C at line 119
    Did not find location (279.207 2870.56 11.5) in any cell. Skipping location.
--> FOAM Warning : 
    From function virtual void Foam::probes::findElements(const Foam::fvMesh&)
    in file probes/probes.C at line 119
    Did not find location (282.302 2870.56 11.5) in any cell. Skipping location.
--> FOAM Warning : 
    From function virtual void Foam::probes::findElements(const Foam::fvMesh&)
    in file probes/probes.C at line 119
    Did not find location (285.396 2870.56 11.5) in any cell. Skipping location.
--> FOAM Warning : 
    From function virtual void Foam::probes::findElements(const Foam::fvMesh&)
    in file probes/probes.C at line 119
    Did not find location (288.49 2870.56 11.5) in any cell. Skipping location.
--> FOAM Warning : 
    From function virtual void Foam::probes::findElements(const Foam::fvMesh&)
    in file probes/probes.C at line 119
    Did not find location (291.585 2870.56 11.5) in any cell. Skipping location.
--> FOAM Warning : 
    From function virtual void Foam::probes::findElements(const Foam::fvMesh&)
    in file probes/probes.C at line 119
    Did not find location (294.679 2870.56 11.5) in any cell. Skipping location.
--> FOAM Warning : 
    From function virtual void Foam::probes::findElements(const Foam::fvMesh&)
    in file probes/probes.C at line 119
    Did not find location (297.773 2870.56 11.5) in any cell. Skipping location.
--> FOAM Warning : 
    From function virtual void Foam::probes::findElements(const Foam::fvMesh&)
    in file probes/probes.C at line 119
    Did not find location (300.868 2870.56 11.5) in any cell. Skipping location.
--> FOAM Warning : 
    From function virtual void Foam::probes::findElements(const Foam::fvMesh&)
    in file probes/probes.C at line 119
    Did not find location (303.962 2870.56 11.5) in any cell. Skipping location.
--> FOAM Warning : 
    From function virtual void Foam::probes::findElements(const Foam::fvMesh&)
    in file probes/probes.C at line 119
    Did not find location (307.056 2870.56 11.5) in any cell. Skipping location.
--> FOAM Warning : 
    From function virtual void Foam::probes::findElements(const Foam::fvMesh&)
    in file probes/probes.C at line 119
    Did not find location (310.151 2870.56 11.5) in any cell. Skipping location.
--> FOAM Warning : 
    From function virtual void Foam::probes::findElements(const Foam::fvMesh&)
    in file probes/probes.C at line 119
    Did not find location (313.245 2870.56 11.5) in any cell. Skipping location.
--> FOAM Warning : 
    From function virtual void Foam::probes::findElements(const Foam::fvMesh&)
    in file probes/probes.C at line 119
    Did not find location (316.339 2870.56 11.5) in any cell. Skipping location.
--> FOAM Warning : 
    From function virtual void Foam::probes::findElements(const Foam::fvMesh&)
    in file probes/probes.C at line 119
    Did not find location (319.434 2870.56 11.5) in any cell. Skipping location.
--> FOAM Warning : 
    From function virtual void Foam::probes::findElements(const Foam::fvMesh&)
    in file probes/probes.C at line 119
    Did not find location (322.528 2870.56 11.5) in any cell. Skipping location.
--> FOAM Warning : 
    From function virtual void Foam::probes::findElements(const Foam::fvMesh&)
    in file probes/probes.C at line 119
    Did not find location (325.622 2870.56 11.5) in any cell. Skipping location.
--> FOAM Warning : 
    From function virtual void Foam::probes::findElements(const Foam::fvMesh&)
    in file probes/probes.C at line 119
    Did not find location (328.717 2870.56 11.5) in any cell. Skipping location.
--> FOAM Warning : 
    From function virtual void Foam::probes::findElements(const Foam::fvMesh&)
    in file probes/probes.C at line 119
    Did not find location (331.811 2870.56 11.5) in any cell. Skipping location.
--> FOAM Warning : 
    From function virtual void Foam::probes::findElements(const Foam::fvMesh&)
    in file probes/probes.C at line 119
    Did not find location (334.905 2870.56 11.5) in any cell. Skipping location.
--> FOAM Warning : 
    From function virtual void Foam::probes::findElements(const Foam::fvMesh&)
    in file probes/probes.C at line 119
    Did not find location (338 2870.56 11.5) in any cell. Skipping location.
--> FOAM Warning : 
    From function virtual void Foam::probes::findElements(const Foam::fvMesh&)
    in file probes/probes.C at line 119
    Did not find location (341.094 2870.56 11.5) in any cell. Skipping location.
--> FOAM Warning : 
    From function virtual void Foam::probes::findElements(const Foam::fvMesh&)
    in file probes/probes.C at line 119
    Did not find location (344.188 2870.56 11.5) in any cell. Skipping location.
--> FOAM Warning : 
    From function virtual void Foam::probes::findElements(const Foam::fvMesh&)
    in file probes/probes.C at line 119
    Did not find location (347.283 2870.56 11.5) in any cell. Skipping location.
--> FOAM Warning : 
    From function virtual void Foam::probes::findElements(const Foam::fvMesh&)
    in file probes/probes.C at line 119
    Did not find location (350.377 2870.56 11.5) in any cell. Skipping location.
--> FOAM Warning : 
    From function virtual void Foam::probes::findElements(const Foam::fvMesh&)
    in file probes/probes.C at line 119
    Did not find location (353.471 2870.56 11.5) in any cell. Skipping location.
--> FOAM Warning : 
    From function virtual void Foam::probes::findElements(const Foam::fvMesh&)
    in file probes/probes.C at line 119
    Did not find location (356.566 2870.56 11.5) in any cell. Skipping location.
--> FOAM Warning : 
    From function virtual void Foam::probes::findElements(const Foam::fvMesh&)
    in file probes/probes.C at line 119
    Did not find location (359.66 2870.56 11.5) in any cell. Skipping location.
--> FOAM Warning : 
    From function virtual void Foam::probes::findElements(const Foam::fvMesh&)
    in file probes/probes.C at line 119
    Did not find location (362.754 2870.56 11.5) in any cell. Skipping location.
--> FOAM Warning : 
    From function virtual void Foam::probes::findElements(const Foam::fvMesh&)
    in file probes/probes.C at line 119
    Did not find location (365.849 2870.56 11.5) in any cell. Skipping location.
--> FOAM Warning : 
    From function virtual void Foam::probes::findElements(const Foam::fvMesh&)
    in file probes/probes.C at line 119
    Did not find location (368.943 2870.56 11.5) in any cell. Skipping location.
--> FOAM Warning : 
    From function virtual void Foam::probes::findElements(const Foam::fvMesh&)
    in file probes/probes.C at line 119
    Did not find location (372.037 2870.56 11.5) in any cell. Skipping location.
--> FOAM Warning : 
    From function virtual void Foam::probes::findElements(const Foam::fvMesh&)
    in file probes/probes.C at line 119
    Did not find location (375.132 2870.56 11.5) in any cell. Skipping location.
--> FOAM Warning : 
    From function virtual void Foam::probes::findElements(const Foam::fvMesh&)
    in file probes/probes.C at line 119
    Did not find location (378.226 2870.56 11.5) in any cell. Skipping location.
--> FOAM Warning : 
    From function virtual void Foam::probes::findElements(const Foam::fvMesh&)
    in file probes/probes.C at line 119
    Did not find location (381.32 2870.56 11.5) in any cell. Skipping location.
--> FOAM Warning : 
    From function virtual void Foam::probes::findElements(const Foam::fvMesh&)
    in file probes/probes.C at line 119
    Did not find location (384.415 2870.56 11.5) in any cell. Skipping location.
--> FOAM Warning : 
    From function virtual void Foam::probes::findElements(const Foam::fvMesh&)
    in file probes/probes.C at line 119
    Did not find location (387.509 2870.56 11.5) in any cell. Skipping location.
--> FOAM Warning : 
    From function virtual void Foam::probes::findElements(const Foam::fvMesh&)
    in file probes/probes.C at line 119
    Did not find location (390.604 2870.56 11.5) in any cell. Skipping location.
--> FOAM Warning : 
    From function virtual void Foam::probes::findElements(const Foam::fvMesh&)
    in file probes/probes.C at line 119
    Did not find location (393.698 2870.56 11.5) in any cell. Skipping location.
--> FOAM Warning : 
    From function virtual void Foam::probes::findElements(const Foam::fvMesh&)
    in file probes/probes.C at line 119
    Did not find location (396.792 2870.56 11.5) in any cell. Skipping location.
--> FOAM Warning : 
    From function virtual void Foam::probes::findElements(const Foam::fvMesh&)
    in file probes/probes.C at line 119
    Did not find location (399.887 2870.56 11.5) in any cell. Skipping location.
--> FOAM Warning : 
    From function virtual void Foam::probes::findElements(const Foam::fvMesh&)
    in file probes/probes.C at line 119
    Did not find location (402.981 2870.56 11.5) in any cell. Skipping location.
--> FOAM Warning : 
    From function virtual void Foam::probes::findElements(const Foam::fvMesh&)
    in file probes/probes.C at line 119
    Did not find location (406.075 2870.56 11.5) in any cell. Skipping location.
--> FOAM Warning : 
    From function virtual void Foam::probes::findElements(const Foam::fvMesh&)
    in file probes/probes.C at line 119
    Did not find location (409.17 2870.56 11.5) in any cell. Skipping location.
--> FOAM Warning : 
    From function virtual void Foam::probes::findElements(const Foam::fvMesh&)
    in file probes/probes.C at line 119
    Did not find location (412.264 2870.56 11.5) in any cell. Skipping location.
--> FOAM Warning : 
    From function virtual void Foam::probes::findElements(const Foam::fvMesh&)
    in file probes/probes.C at line 119
    Did not find location (415.358 2870.56 11.5) in any cell. Skipping location.
--> FOAM Warning : 
    From function virtual void Foam::probes::findElements(const Foam::fvMesh&)
    in file probes/probes.C at line 119
    Did not find location (418.453 2870.56 11.5) in any cell. Skipping location.
--> FOAM Warning : 
    From function virtual void Foam::probes::findElements(const Foam::fvMesh&)
    in file probes/probes.C at line 119
    Did not find location (421.547 2870.56 11.5) in any cell. Skipping location.
--> FOAM Warning : 
    From function virtual void Foam::probes::findElements(const Foam::fvMesh&)
    in file probes/probes.C at line 119
    Did not find location (424.641 2870.56 11.5) in any cell. Skipping location.
--> FOAM Warning : 
    From function virtual void Foam::probes::findElements(const Foam::fvMesh&)
    in file probes/probes.C at line 119
    Did not find location (427.736 2870.56 11.5) in any cell. Skipping location.
--> FOAM Warning : 
    From function virtual void Foam::probes::findElements(const Foam::fvMesh&)
    in file probes/probes.C at line 119
    Did not find location (430.83 2870.56 11.5) in any cell. Skipping location.
--> FOAM Warning : 
    From function virtual void Foam::probes::findElements(const Foam::fvMesh&)
    in file probes/probes.C at line 119
    Did not find location (433.924 2870.56 11.5) in any cell. Skipping location.
--> FOAM Warning : 
    From function virtual void Foam::probes::findElements(const Foam::fvMesh&)
    in file probes/probes.C at line 119
    Did not find location (437.019 2870.56 11.5) in any cell. Skipping location.
--> FOAM Warning : 
    From function virtual void Foam::probes::findElements(const Foam::fvMesh&)
    in file probes/probes.C at line 119
    Did not find location (440.113 2870.56 11.5) in any cell. Skipping location.
--> FOAM Warning : 
    From function virtual void Foam::probes::findElements(const Foam::fvMesh&)
    in file probes/probes.C at line 119
    Did not find location (443.207 2870.56 11.5) in any cell. Skipping location.
--> FOAM Warning : 
    From function virtual void Foam::probes::findElements(const Foam::fvMesh&)
    in file probes/probes.C at line 119
    Did not find location (446.302 2870.56 11.5) in any cell. Skipping location.
--> FOAM Warning : 
    From function virtual void Foam::probes::findElements(const Foam::fvMesh&)
    in file probes/probes.C at line 119
    Did not find location (449.396 2870.56 11.5) in any cell. Skipping location.
--> FOAM Warning : 
    From function virtual void Foam::probes::findElements(const Foam::fvMesh&)
    in file probes/probes.C at line 119
    Did not find location (452.49 2870.56 11.5) in any cell. Skipping location.
--> FOAM Warning : 
    From function virtual void Foam::probes::findElements(const Foam::fvMesh&)
    in file probes/probes.C at line 119
    Did not find location (455.585 2870.56 11.5) in any cell. Skipping location.
--> FOAM Warning : 
    From function virtual void Foam::probes::findElements(const Foam::fvMesh&)
    in file probes/probes.C at line 119
    Did not find location (458.679 2870.56 11.5) in any cell. Skipping location.
Flow time scale min/max = 1, 1
Smoothed flow time scale min/max = 1, 1
Time = 1

smoothSolver:  Solving for alpha.water, Initial residual = 0.000411929, Final residual = 1.06121e-09, No Iterations 2
Phase-1 volume fraction = 0.652421  Min(alpha.water) = 0  Max(alpha.water) = 1
MULES: Correcting alpha.water
MULES: Correcting alpha.water
Phase-1 volume fraction = 0.652421  Min(alpha.water) = -1.55614e-18  Max(alpha.water) = 1
GAMG:  Solving for p_rgh, Initial residual = 1, Final residual = 0.00914537, No Iterations 1
time step continuity errors : sum local = 2.56988, global = 0.882337, cumulative = 0.882337
GAMG:  Solving for p_rgh, Initial residual = 0.00333463, Final residual = 6.66279e-08, No Iterations 10
time step continuity errors : sum local = 6.9086e-05, global = 3.74741e-05, cumulative = 0.882375
smoothSolver:  Solving for omega, Initial residual = 0.883011, Final residual = 0.0861795, No Iterations 14
smoothSolver:  Solving for k, Initial residual = 1, Final residual = 0.0979225, No Iterations 7
ExecutionTime = 183.56 s  ClockTime = 183 s

End

